docs/examples/schedules_direct/schedules_direct.glm
module powerflow {
     solver_method NR;
     NR_iteration_limit 50;
};
module tape;

schedule load_schedule_1 {
	0-29 0 * * * 30000+20000j 
	30-59 0 * * * 50000+10000j 
}

schedule load_schedule_2 {
	0-14 0 * * * 35000+10000j 
	15-44 0 * * * 60000+5000j 
	45-59 0 * * * 30000+20000j 
}

clock {
     timezone PST+8PDT;
     starttime '2009-01-01 00:00:00';
     stoptime '2009-01-01 02:00:00';
}


object line_configuration {     
      name line_configuration_1;     
      conductor_A overhead_line_conductor_1;     
      conductor_B overhead_line_conductor_1;     
      conductor_C overhead_line_conductor_1;     
      conductor_N overhead_line_conductor_1;     
      spacing line_spacing_1;     
} 
object line_configuration {     
      name line_configuration_2;     
      conductor_A underground_line_conductor_1;     
      conductor_B underground_line_conductor_1;     
      conductor_C underground_line_conductor_1;     
      conductor_N underground_line_conductor_1;     
      spacing line_spacing_2;     
} 

object line_spacing {     
      name line_spacing_1;     
      distance_AB 57.6 in;    
      distance_BC 57.6 in;    
      distance_AC 57.6 in;    
      distance_AN 51.6 in;    
      distance_BN 51.6 in;    
      distance_CN 51.6 in;    
}  
object line_spacing {     
      name line_spacing_2;     
      distance_AB 24 in;    
      distance_BC 24 in;    
      distance_AC 48 in;    
      distance_AN 60 in;    
      distance_BN 48 in;    
      distance_CN 24 in;    
} 

object overhead_line_conductor {     
      name overhead_line_conductor_1;      
      rating.summer.continuous 256.0;     
      geometric_mean_radius 0.01200 ft;    
      resistance 0.1;     
}  
object underground_line_conductor {     
    name underground_line_conductor_1;      
	outer_diameter 2.20;
	conductor_gmr 0.04;
	conductor_diameter 1.2500;
	conductor_resistance 0.109;
	neutral_gmr 0.005;
	neutral_resistance 9.6;
	neutral_diameter 0.19;
	neutral_strands 20;
	shield_gmr 0;
	shield_resistance 0;    
} 

object overhead_line_conductor {     
      name overhead_line_conductor_2;      
  	  rating.summer.continuous 150.0;     
      geometric_mean_radius 0.02200 ft;    
      resistance 0.2;     
}

object transformer_configuration {
    	name substation_transformer_config;
    	connect_type WYE_WYE;
     	install_type PADMOUNT;
     	primary_voltage 132790;
     	secondary_voltage 7216;
     	power_rating 8.4 MVA;
     	impedance 0.00033+0.0022j;
}

object node {
	name feeder_head;
	bustype SWING;
	phases ABCN;
    nominal_voltage 132790;
}

object transformer {
     name substation_transformer;
     from feeder_head;
     to substation_meter;
     phases ABCN;
     configuration substation_transformer_config;
}

object meter {     
      name substation_meter;     
      phases ABCN;     
      nominal_voltage 7216.88;         
} 

object overhead_line {     
      name branch_1_line_1;     
      phases ABCN;     
      from substation_meter;     
      to branch_1_meter_1;     
      length 10000;     
      configuration line_configuration_1;     
} 

object meter {     
      name branch_2_meter_1; 
      groupid branch_2_meter;    
      phases ABCN;     
      nominal_voltage 7216.88;     
} 
object meter {     
      name branch_2_meter_2;
      groupid branch_2_meter;    
      phases ABCN;     
      nominal_voltage 7216.88;     
} 
object meter {     
      name branch_2_meter_3; 
      groupid branch_2_meter;    
      phases ABCN;     
      nominal_voltage 7216.88;     
} 

object underground_line {     
      name branch_2_line_1;     
      phases ABCN;     
      from substation_meter;     
      to branch_2_meter_1;     
      length 5000;     
      configuration line_configuration_2;     
} 
object underground_line {     
      name branch_2_line_2;     
      phases ABCN;     
      from branch_2_meter_1;     
      to branch_2_meter_2;     
      length 17500;     
      configuration line_configuration_2;     
}  

object meter {     
      name branch_1_meter_1; 
      groupid branch_1_meter;    
      phases ABCN;     
      nominal_voltage 7216.88;     
} 

object overhead_line {     
      name branch_1_line_2;     
      phases ABCN;     
      from branch_1_meter_1;     
      to branch_1_meter_2;     
      length 5000;     
      configuration line_configuration_1;     
} 

object meter {     
      name branch_1_meter_2;  
      groupid branch_1_meter;   
      phases ABCN;     
      nominal_voltage 7216.88;     
} 
object overhead_line {     
      name branch_1_line_3;     
      phases ABCN;     
      from branch_1_meter_2;     
      to branch_1_meter_3;     
      length 15000;     
      configuration line_configuration_1;     
} 

object meter {     
      name branch_1_meter_3;  
      groupid branch_1_meter;   
      phases ABCN;     
      nominal_voltage 7216.88;     
} 
object load {
     parent branch_2_meter_2;
     name b2m2_load;
     nominal_voltage 7216.88;
     phases ABC;
	constant_power_A load_schedule_2;
}

object load {
     parent branch_1_meter_1;
     name b1m1_load;
     nominal_voltage 7216.88;
     phases ABC;
	constant_power_A load_schedule_2;
}

object load {
     parent branch_2_meter_3;
     name b2m3_load;
     nominal_voltage 7216.88;
     phases ABC;
	constant_power_A load_schedule_1;
}
object load {
     parent branch_1_meter_3;
     name b1m3_load;
     nominal_voltage 7216.88;
     phases ABC;
	constant_power_A load_schedule_1;
}

object overhead_line {     
      name branch_2_line_3;     
      phases ABCN;     
      from branch_2_meter_2;     
      to branch_2_meter_3;     
      length 25000;     
      configuration line_configuration_1;     
}


object recorder {
	name substation_recorder;
	parent substation_meter;
     file substation_data.csv;
     interval 60;
     property measured_voltage_A.real, measured_voltage_A.imag, measured_current_A.real, measured_current_A.real, measured_power_A.real, measured_power_A.imag;
}; 
object recorder {
	name b1m1_recorder;
	parent branch_1_meter_1;
     file branch_1_meter_1.csv;
     interval 60;
     property measured_voltage_A, measured_current_A, measured_power_A;
};
object recorder {
	name b1m2_recorder;
	parent branch_1_meter_2;
     file branch_1_meter_2.csv;
     interval 60;
     property measured_voltage_A, measured_current_A, measured_power_A;
};
object recorder {
	name b1m3_recorder;
	parent branch_1_meter_3;
     file branch_1_meter_3.csv;
     interval 60;
     property measured_voltage_A, measured_current_A, measured_power_A;
};

object multi_recorder{
	name b2_meters_recorder;
	file branch_2_meters.csv;
	interval 60;
	property branch_2_meter_1:measured_voltage_A, branch_2_meter_1:measured_current_A, branch_2_meter_1:measured_power_A, branch_2_meter_2:measured_voltage_A, branch_2_meter_2:measured_current_A, branch_2_meter_2:measured_power_A, branch_2_meter_3:measured_voltage_A, branch_2_meter_3:measured_current_A, branch_2_meter_3:measured_power_A; 
}

object collector {
     group "class=meter AND groupid=branch_1_meter";
     property avg(measured_voltage_A.mag), min(measured_voltage_A.mag), max(measured_voltage_A.mag);
     interval 60;
     file branch_1_voltages.csv;
}

object collector {
     group "class=overhead_line";
     property sum(power_losses_A.real), std(power_losses_A.real);
     interval 60;
     file overhead_line_losses.csv;
}

object collector {
     group "class=underground_line";
     property sum(power_losses_A.real), std(power_losses_A.real);
     interval 60;
     file underground_line_losses.csv;
}